Version 4
SHEET 1 2372 692
WIRE 1488 80 1488 32
WIRE 1312 112 1232 112
WIRE 1440 112 1376 112
WIRE 1136 176 1136 160
WIRE 1312 208 1280 208
WIRE 1440 208 1440 112
WIRE 1440 208 1376 208
WIRE 1616 208 1440 208
WIRE 1712 208 1616 208
WIRE 1136 272 1136 256
WIRE 1712 288 1712 208
WIRE 1616 304 1616 288
WIRE 1232 320 1232 112
WIRE 1232 320 1136 320
WIRE 1360 320 1232 320
WIRE 1488 320 1488 160
WIRE 1488 320 1424 320
WIRE 1824 368 1712 368
WIRE 1136 416 1136 400
WIRE 1280 416 1280 208
WIRE 1280 416 1216 416
WIRE 1360 416 1280 416
WIRE 1488 416 1488 320
WIRE 1488 416 1424 416
WIRE 1536 416 1488 416
WIRE 1648 416 1600 416
WIRE 1216 448 1216 416
WIRE 1712 480 1712 464
WIRE 1216 544 1216 528
FLAG 1136 272 0
FLAG 1136 416 0
FLAG 1216 544 0
FLAG 1616 304 0
FLAG 1712 480 0
FLAG 1136 160 VCC
FLAG 1488 32 VCC
SYMBOL voltage 1216 432 R0
WINDOW 123 0 0 Left 0
WINDOW 39 24 124 Left 2
SYMATTR InstName V2
SYMATTR Value PULSE(0 5 0 0 0 1 2)
SYMBOL voltage 1136 304 M0
WINDOW 123 0 0 Left 0
WINDOW 39 24 124 Left 2
SYMATTR InstName V3
SYMATTR Value PULSE(0 5 0.5 0 0 0.005 2)
SYMBOL voltage 1136 160 R0
WINDOW 123 0 0 Left 0
WINDOW 39 0 0 Left 0
SYMATTR InstName V4
SYMATTR Value 12
SYMBOL diode 1312 128 R270
WINDOW 0 32 32 VTop 2
WINDOW 3 0 32 VBottom 2
SYMATTR InstName D1
SYMATTR Value 1N4148
SYMBOL diode 1312 224 R270
WINDOW 0 32 32 VTop 2
WINDOW 3 0 32 VBottom 2
SYMATTR InstName D2
SYMATTR Value 1N4148
SYMBOL res 1472 64 R0
SYMATTR InstName R3
SYMATTR Value 22k
SYMBOL diode 1536 432 R270
WINDOW 0 32 32 VTop 2
WINDOW 3 0 32 VBottom 2
SYMATTR InstName D5
SYMATTR Value 1N4148
SYMBOL diode 1424 304 R90
WINDOW 0 0 32 VBottom 2
WINDOW 3 32 32 VTop 2
SYMATTR InstName D3
SYMATTR Value 1N4148
SYMBOL diode 1424 400 R90
WINDOW 0 0 32 VBottom 2
WINDOW 3 32 32 VTop 2
SYMATTR InstName D4
SYMATTR Value 1N4148
SYMBOL res 1600 192 R0
SYMATTR InstName R4
SYMATTR Value 4k7
SYMBOL npn 1648 368 R0
SYMATTR InstName Q1
SYMATTR Value BC547B
SYMBOL res 1696 272 R0
SYMATTR InstName R5
SYMATTR Value 10k
TEXT 958 152 Left 2 !.tran 10
